/*--------------------------------*- C++ -*----------------------------------*\
| =========                 |                                                 |
| \\      /  F ield         | OpenFOAM: The Open Source CFD Toolbox           |
|  \\    /   O peration     | Version:  v2306                                 |
|   \\  /    A nd           | Website:  www.openfoam.com                      |
|    \\/     M anipulation  |                                                 |
\*---------------------------------------------------------------------------*/
FoamFile
{
    version     2.0;
    format      ascii;
    class       volScalarField;
    object      p;
}
// * * * * * * * * * * * * * * * * * * * * * * * * * * * * * * * * * * * * * //

dimensions      [1 -1 -2 0 0 0 0];

internalField   uniform 32000;

boundaryField
{
    inlet1
    {
	type                freestreamPressure;
    	freestreamValue     uniform 32000;
    	value               uniform 32000;
    }     

    /*outlet1
    {
        type            fixedValue; // zeroGrad for initial test
	    value 		    uniform 1.282e+06 ;  // pb/pi = 12.8 // zeroG results
    }
    */ 

    outlet1
    {
        type            zeroGradient;
    }

    outlet2
    {
        type            zeroGradient;
    }

    "(wall1|wall2).*"
    {
        type            zeroGradient;
    }

    top
    {
        type            zeroGradient;
    }

    bottom
    {
        type            zeroGradient;
    }
    
    defaultFaces
    {
        type            empty;
    }
}


// ************************************************************************* //
